final_line_limit_summary.csv
load_bus,generator_bus,max_loading,median_loading,branches_overloaded,count_branches_overloaded
1,No generator,103.9,39.75,['5-6'],1
1,1,122.4,28.950000000000003,['21-22'],1
1,2,122.4,28.950000000000003,['21-22'],1
1,3,122.4,28.950000000000003,['21-22'],1
1,4,122.4,28.950000000000003,['21-22'],1
1,5,122.4,28.950000000000003,['21-22'],1
1,6,122.4,28.950000000000003,['21-22'],1
1,7,122.4,28.950000000000003,['21-22'],1
1,8,122.4,28.950000000000003,['21-22'],1
1,9,122.4,28.950000000000003,['21-22'],1
1,10,122.4,28.950000000000003,['21-22'],1
1,11,122.4,28.950000000000003,['21-22'],1
1,12,122.4,28.950000000000003,['21-22'],1
1,13,122.4,28.950000000000003,['21-22'],1
1,14,122.4,28.950000000000003,['21-22'],1
1,15,122.4,28.950000000000003,['21-22'],1
1,16,122.4,28.950000000000003,['21-22'],1
1,17,122.4,28.950000000000003,['21-22'],1
1,18,122.4,28.950000000000003,['21-22'],1
1,19,122.4,28.950000000000003,['21-22'],1
1,20,122.4,28.950000000000003,['21-22'],1
1,21,122.4,28.950000000000003,['21-22'],1
1,22,122.4,28.950000000000003,['21-22'],1
1,23,122.4,28.950000000000003,['21-22'],1
1,24,122.4,28.950000000000003,['21-22'],1
1,25,122.4,28.950000000000003,['21-22'],1
1,26,122.4,28.950000000000003,['21-22'],1
1,27,122.4,28.950000000000003,['21-22'],1
1,28,122.4,28.950000000000003,['21-22'],1
1,29,122.4,28.950000000000003,['21-22'],1
1,30,122.4,28.950000000000003,['21-22'],1
1,31,122.4,28.950000000000003,['21-22'],1
1,32,122.4,28.950000000000003,['21-22'],1
1,33,122.4,28.950000000000003,['21-22'],1
1,34,122.4,28.950000000000003,['21-22'],1
1,35,122.4,28.950000000000003,['21-22'],1
1,36,122.4,28.950000000000003,['21-22'],1
1,37,122.4,28.950000000000003,['21-22'],1
1,38,122.4,28.950000000000003,['21-22'],1
1,39,122.4,28.950000000000003,['21-22'],1
2,No generator,105.8,35.150000000000006,['5-6'],1
2,1,122.5,33.099999999999994,['21-22'],1
2,2,122.5,33.099999999999994,['21-22'],1
2,3,122.5,33.099999999999994,['21-22'],1
2,4,122.5,33.099999999999994,['21-22'],1
2,5,122.5,33.099999999999994,['21-22'],1
2,6,122.5,33.099999999999994,['21-22'],1
2,7,122.5,33.099999999999994,['21-22'],1
2,8,122.5,33.099999999999994,['21-22'],1
2,9,122.5,33.099999999999994,['21-22'],1
2,10,122.5,33.099999999999994,['21-22'],1
2,11,122.5,33.099999999999994,['21-22'],1
2,12,122.5,33.099999999999994,['21-22'],1
2,13,122.5,33.099999999999994,['21-22'],1
2,14,122.5,33.099999999999994,['21-22'],1
2,15,122.5,33.099999999999994,['21-22'],1
2,16,122.5,33.099999999999994,['21-22'],1
2,17,122.5,33.099999999999994,['21-22'],1
2,18,122.5,33.099999999999994,['21-22'],1
2,19,122.5,33.099999999999994,['21-22'],1
2,20,122.5,33.099999999999994,['21-22'],1
2,21,122.5,33.099999999999994,['21-22'],1
2,22,122.5,33.099999999999994,['21-22'],1
2,23,122.5,33.099999999999994,['21-22'],1
2,24,122.5,33.099999999999994,['21-22'],1
2,25,122.5,33.099999999999994,['21-22'],1
2,26,122.5,33.099999999999994,['21-22'],1
2,27,122.5,33.099999999999994,['21-22'],1
2,28,122.5,33.099999999999994,['21-22'],1
2,29,122.5,33.099999999999994,['21-22'],1
2,30,122.5,33.099999999999994,['21-22'],1
2,31,122.5,33.099999999999994,['21-22'],1
2,32,122.5,33.099999999999994,['21-22'],1
2,33,122.5,33.099999999999994,['21-22'],1
2,34,122.5,33.099999999999994,['21-22'],1
2,35,122.5,33.099999999999994,['21-22'],1
2,36,122.5,33.099999999999994,['21-22'],1
2,37,122.5,33.099999999999994,['21-22'],1
2,38,122.5,33.099999999999994,['21-22'],1
2,39,122.5,33.099999999999994,['21-22'],1
3,No generator,107.2,33.7,['5-6'],1
3,1,122.9,36.25,['21-22'],1
3,2,122.9,36.25,['21-22'],1
3,3,122.9,36.25,['21-22'],1
3,4,122.9,36.25,['21-22'],1
3,5,122.9,36.25,['21-22'],1
3,6,122.9,36.25,['21-22'],1
3,7,122.9,36.25,['21-22'],1
3,8,122.9,36.25,['21-22'],1
3,9,122.9,36.25,['21-22'],1
3,10,122.9,36.25,['21-22'],1
3,11,122.9,36.25,['21-22'],1
3,12,122.9,36.25,['21-22'],1
3,13,122.9,36.25,['21-22'],1
3,14,122.9,36.25,['21-22'],1
3,15,122.9,36.25,['21-22'],1
3,16,122.9,36.25,['21-22'],1
3,17,122.9,36.25,['21-22'],1
3,18,122.9,36.25,['21-22'],1
3,19,122.9,36.25,['21-22'],1
3,20,122.9,36.25,['21-22'],1
3,21,122.9,36.25,['21-22'],1
3,22,122.9,36.25,['21-22'],1
3,23,122.9,36.25,['21-22'],1
3,24,122.9,36.25,['21-22'],1
3,25,122.9,36.25,['21-22'],1
3,26,122.9,36.25,['21-22'],1
3,27,122.9,36.25,['21-22'],1
3,28,122.9,36.25,['21-22'],1
3,29,122.9,36.25,['21-22'],1
3,30,122.9,36.25,['21-22'],1
3,31,122.9,36.25,['21-22'],1
3,32,122.9,36.25,['21-22'],1
3,33,122.9,36.25,['21-22'],1
3,34,122.9,36.25,['21-22'],1
3,35,122.9,36.25,['21-22'],1
3,36,122.9,36.25,['21-22'],1
3,37,122.9,36.25,['21-22'],1
3,38,122.9,36.25,['21-22'],1
3,39,122.9,36.25,['21-22'],1
4,No generator,113.0,29.4,['5-6'],1
4,1,122.9,38.5,['21-22'],1
4,2,122.9,38.5,['21-22'],1
4,3,122.9,38.5,['21-22'],1
4,4,122.9,38.5,['21-22'],1
4,5,122.9,38.5,['21-22'],1
4,6,122.9,38.5,['21-22'],1
4,7,122.9,38.5,['21-22'],1
4,8,122.9,38.5,['21-22'],1
4,9,122.9,38.5,['21-22'],1
4,10,122.9,38.5,['21-22'],1
4,11,122.9,38.5,['21-22'],1
4,12,122.9,38.5,['21-22'],1
4,13,122.9,38.5,['21-22'],1
4,14,122.9,38.5,['21-22'],1
4,15,122.9,38.5,['21-22'],1
4,16,122.9,38.5,['21-22'],1
4,17,122.9,38.5,['21-22'],1
4,18,122.9,38.5,['21-22'],1
4,19,122.9,38.5,['21-22'],1
4,20,122.9,38.5,['21-22'],1
4,21,122.9,38.5,['21-22'],1
4,22,122.9,38.5,['21-22'],1
4,23,122.9,38.5,['21-22'],1
4,24,122.9,38.5,['21-22'],1
4,25,122.9,38.5,['21-22'],1
4,26,122.9,38.5,['21-22'],1
4,27,122.9,38.5,['21-22'],1
4,28,122.9,38.5,['21-22'],1
4,29,122.9,38.5,['21-22'],1
4,30,122.9,38.5,['21-22'],1
4,31,122.9,38.5,['21-22'],1
4,32,122.9,38.5,['21-22'],1
4,33,122.9,38.5,['21-22'],1
4,34,122.9,38.5,['21-22'],1
4,35,122.9,38.5,['21-22'],1
4,36,122.9,38.5,['21-22'],1
4,37,122.9,38.5,['21-22'],1
4,38,122.9,38.5,['21-22'],1
4,39,122.9,38.5,['21-22'],1
5,No generator,135.2,30.049999999999997,['5-6'],1
5,1,122.7,31.4,['21-22'],1
5,2,122.7,31.4,['21-22'],1
5,3,122.7,31.4,['21-22'],1
5,4,122.7,31.4,['21-22'],1
5,5,122.7,31.4,['21-22'],1
5,6,122.7,31.4,['21-22'],1
5,7,122.7,31.4,['21-22'],1
5,8,122.7,31.4,['21-22'],1
5,9,122.7,31.4,['21-22'],1
5,10,122.7,31.4,['21-22'],1
5,11,122.7,31.4,['21-22'],1
5,12,122.7,31.4,['21-22'],1
5,13,122.7,31.4,['21-22'],1
5,14,122.7,31.4,['21-22'],1
5,15,122.7,31.4,['21-22'],1
5,16,122.7,31.4,['21-22'],1
5,17,122.7,31.4,['21-22'],1
5,18,122.7,31.4,['21-22'],1
5,19,122.7,31.4,['21-22'],1
5,20,122.7,31.4,['21-22'],1
5,21,122.7,31.4,['21-22'],1
5,22,122.7,31.4,['21-22'],1
5,23,122.7,31.4,['21-22'],1
5,24,122.7,31.4,['21-22'],1
5,25,122.7,31.4,['21-22'],1
5,26,122.7,31.4,['21-22'],1
5,27,122.7,31.4,['21-22'],1
5,28,122.7,31.4,['21-22'],1
5,29,122.7,31.4,['21-22'],1
5,30,122.7,31.4,['21-22'],1
5,31,122.7,31.4,['21-22'],1
5,32,122.7,31.4,['21-22'],1
5,33,122.7,31.4,['21-22'],1
5,34,122.7,31.4,['21-22'],1
5,35,122.7,31.4,['21-22'],1
5,36,122.7,31.4,['21-22'],1
5,37,122.7,31.4,['21-22'],1
5,38,122.7,31.4,['21-22'],1
5,39,122.7,31.4,['21-22'],1
6,No generator,91.0,29.799999999999997,[],0
6,1,122.7,30.55,['21-22'],1
6,2,122.7,30.55,['21-22'],1
6,3,122.7,30.55,['21-22'],1
6,4,122.7,30.55,['21-22'],1
6,5,122.7,30.55,['21-22'],1
6,6,122.7,30.55,['21-22'],1
6,7,122.7,30.55,['21-22'],1
6,8,122.7,30.55,['21-22'],1
6,9,122.7,30.55,['21-22'],1
6,10,122.7,30.55,['21-22'],1
6,11,122.7,30.55,['21-22'],1
6,12,122.7,30.55,['21-22'],1
6,13,122.7,30.55,['21-22'],1
6,14,122.7,30.55,['21-22'],1
6,15,122.7,30.55,['21-22'],1
6,16,122.7,30.55,['21-22'],1
6,17,122.7,30.55,['21-22'],1
6,18,122.7,30.55,['21-22'],1
6,19,122.7,30.55,['21-22'],1
6,20,122.7,30.55,['21-22'],1
6,21,122.7,30.55,['21-22'],1
6,22,122.7,30.55,['21-22'],1
6,23,122.7,30.55,['21-22'],1
6,24,122.7,30.55,['21-22'],1
6,25,122.7,30.55,['21-22'],1
6,26,122.7,30.55,['21-22'],1
6,27,122.7,30.55,['21-22'],1
6,28,122.7,30.55,['21-22'],1
6,29,122.7,30.55,['21-22'],1
6,30,122.7,30.55,['21-22'],1
6,31,122.7,30.55,['21-22'],1
6,32,122.7,30.55,['21-22'],1
6,33,122.7,30.55,['21-22'],1
6,34,122.7,30.55,['21-22'],1
6,35,122.7,30.55,['21-22'],1
6,36,122.7,30.55,['21-22'],1
6,37,122.7,30.55,['21-22'],1
6,38,122.7,30.55,['21-22'],1
6,39,122.7,30.55,['21-22'],1
7,No generator,110.0,30.35,['6-7'],1
7,1,122.8,32.45,['21-22'],1
7,2,122.8,32.45,['21-22'],1
7,3,122.8,32.45,['21-22'],1
7,4,122.8,32.45,['21-22'],1
7,5,122.8,32.45,['21-22'],1
7,6,122.8,32.45,['21-22'],1
7,7,122.8,32.45,['21-22'],1
7,8,122.8,32.45,['21-22'],1
7,9,122.8,32.45,['21-22'],1
7,10,122.8,32.45,['21-22'],1
7,11,122.8,32.45,['21-22'],1
7,12,122.8,32.45,['21-22'],1
7,13,122.8,32.45,['21-22'],1
7,14,122.8,32.45,['21-22'],1
7,15,122.8,32.45,['21-22'],1
7,16,122.8,32.45,['21-22'],1
7,17,122.8,32.45,['21-22'],1
7,18,122.8,32.45,['21-22'],1
7,19,122.8,32.45,['21-22'],1
7,20,122.8,32.45,['21-22'],1
7,21,122.8,32.45,['21-22'],1
7,22,122.8,32.45,['21-22'],1
7,23,122.8,32.45,['21-22'],1
7,24,122.8,32.45,['21-22'],1
7,25,122.8,32.45,['21-22'],1
7,26,122.8,32.45,['21-22'],1
7,27,122.8,32.45,['21-22'],1
7,28,122.8,32.45,['21-22'],1
7,29,122.8,32.45,['21-22'],1
7,30,122.8,32.45,['21-22'],1
7,31,122.8,32.45,['21-22'],1
7,32,122.8,32.45,['21-22'],1
7,33,122.8,32.45,['21-22'],1
7,34,122.8,32.45,['21-22'],1
7,35,122.8,32.45,['21-22'],1
7,36,122.8,32.45,['21-22'],1
7,37,122.8,32.45,['21-22'],1
7,38,122.8,32.45,['21-22'],1
7,39,122.8,32.45,['21-22'],1
8,No generator,97.1,31.1,[],0
8,1,122.8,35.6,['21-22'],1
8,2,122.8,35.6,['21-22'],1
8,3,122.8,35.6,['21-22'],1
8,4,122.8,35.6,['21-22'],1
8,5,122.8,35.6,['21-22'],1
8,6,122.8,35.6,['21-22'],1
8,7,122.8,35.6,['21-22'],1
8,8,122.8,35.6,['21-22'],1
8,9,122.8,35.6,['21-22'],1
8,10,122.8,35.6,['21-22'],1
8,11,122.8,35.6,['21-22'],1
8,12,122.8,35.6,['21-22'],1
8,13,122.8,35.6,['21-22'],1
8,14,122.8,35.6,['21-22'],1
8,15,122.8,35.6,['21-22'],1
8,16,122.8,35.6,['21-22'],1
8,17,122.8,35.6,['21-22'],1
8,18,122.8,35.6,['21-22'],1
8,19,122.8,35.6,['21-22'],1
8,20,122.8,35.6,['21-22'],1
8,21,122.8,35.6,['21-22'],1
8,22,122.8,35.6,['21-22'],1
8,23,122.8,35.6,['21-22'],1
8,24,122.8,35.6,['21-22'],1
8,25,122.8,35.6,['21-22'],1
8,26,122.8,35.6,['21-22'],1
8,27,122.8,35.6,['21-22'],1
8,28,122.8,35.6,['21-22'],1
8,29,122.8,35.6,['21-22'],1
8,30,122.8,35.6,['21-22'],1
8,31,122.8,35.6,['21-22'],1
8,32,122.8,35.6,['21-22'],1
8,33,122.8,35.6,['21-22'],1
8,34,122.8,35.6,['21-22'],1
8,35,122.8,35.6,['21-22'],1
8,36,122.8,35.6,['21-22'],1
8,37,122.8,35.6,['21-22'],1
8,38,122.8,35.6,['21-22'],1
8,39,122.8,35.6,['21-22'],1
9,No generator,100.4,35.0,['5-6'],1
9,1,122.5,29.3,['21-22'],1
9,2,122.5,29.3,['21-22'],1
9,3,122.5,29.3,['21-22'],1
9,4,122.5,29.3,['21-22'],1
9,5,122.5,29.3,['21-22'],1
9,6,122.5,29.3,['21-22'],1
9,7,122.5,29.3,['21-22'],1
9,8,122.5,29.3,['21-22'],1
9,9,122.5,29.3,['21-22'],1
9,10,122.5,29.3,['21-22'],1
9,11,122.5,29.3,['21-22'],1
9,12,122.5,29.3,['21-22'],1
9,13,122.5,29.3,['21-22'],1
9,14,122.5,29.3,['21-22'],1
9,15,122.5,29.3,['21-22'],1
9,16,122.5,29.3,['21-22'],1
9,17,122.5,29.3,['21-22'],1
9,18,122.5,29.3,['21-22'],1
9,19,122.5,29.3,['21-22'],1
9,20,122.5,29.3,['21-22'],1
9,21,122.5,29.3,['21-22'],1
9,22,122.5,29.3,['21-22'],1
9,23,122.5,29.3,['21-22'],1
9,24,122.5,29.3,['21-22'],1
9,25,122.5,29.3,['21-22'],1
9,26,122.5,29.3,['21-22'],1
9,27,122.5,29.3,['21-22'],1
9,28,122.5,29.3,['21-22'],1
9,29,122.5,29.3,['21-22'],1
9,30,122.5,29.3,['21-22'],1
9,31,122.5,29.3,['21-22'],1
9,32,122.5,29.3,['21-22'],1
9,33,122.5,29.3,['21-22'],1
9,34,122.5,29.3,['21-22'],1
9,35,122.5,29.3,['21-22'],1
9,36,122.5,29.3,['21-22'],1
9,37,122.5,29.3,['21-22'],1
9,38,122.5,29.3,['21-22'],1
9,39,122.5,29.3,['21-22'],1
10,No generator,91.0,28.15,[],0
10,1,122.7,26.8,['21-22'],1
10,2,122.7,26.8,['21-22'],1
10,3,122.7,26.8,['21-22'],1
10,4,122.7,26.8,['21-22'],1
10,5,122.7,26.8,['21-22'],1
10,6,122.7,26.8,['21-22'],1
10,7,122.7,26.8,['21-22'],1
10,8,122.7,26.8,['21-22'],1
10,9,122.7,26.8,['21-22'],1
10,10,122.7,26.8,['21-22'],1
10,11,122.7,26.8,['21-22'],1
10,12,122.7,26.8,['21-22'],1
10,13,122.7,26.8,['21-22'],1
10,14,122.7,26.8,['21-22'],1
10,15,122.7,26.8,['21-22'],1
10,16,122.7,26.8,['21-22'],1
10,17,122.7,26.8,['21-22'],1
10,18,122.7,26.8,['21-22'],1
10,19,122.7,26.8,['21-22'],1
10,20,122.7,26.8,['21-22'],1
10,21,122.7,26.8,['21-22'],1
10,22,122.7,26.8,['21-22'],1
10,23,122.7,26.8,['21-22'],1
10,24,122.7,26.8,['21-22'],1
10,25,122.7,26.8,['21-22'],1
10,26,122.7,26.8,['21-22'],1
10,27,122.7,26.8,['21-22'],1
10,28,122.7,26.8,['21-22'],1
10,29,122.7,26.8,['21-22'],1
10,30,122.7,26.8,['21-22'],1
10,31,122.7,26.8,['21-22'],1
10,32,122.7,26.8,['21-22'],1
10,33,122.7,26.8,['21-22'],1
10,34,122.7,26.8,['21-22'],1
10,35,122.7,26.8,['21-22'],1
10,36,122.7,26.8,['21-22'],1
10,37,122.7,26.8,['21-22'],1
10,38,122.7,26.8,['21-22'],1
10,39,122.7,26.8,['21-22'],1
11,No generator,91.0,28.3,[],0
11,1,122.7,31.25,['21-22'],1
11,2,122.7,31.25,['21-22'],1
11,3,122.7,31.25,['21-22'],1
11,4,122.7,31.25,['21-22'],1
11,5,122.7,31.25,['21-22'],1
11,6,122.7,31.25,['21-22'],1
11,7,122.7,31.25,['21-22'],1
11,8,122.7,31.25,['21-22'],1
11,9,122.7,31.25,['21-22'],1
11,10,122.7,31.25,['21-22'],1
11,11,122.7,31.25,['21-22'],1
11,12,122.7,31.25,['21-22'],1
11,13,122.7,31.25,['21-22'],1
11,14,122.7,31.25,['21-22'],1
11,15,122.7,31.25,['21-22'],1
11,16,122.7,31.25,['21-22'],1
11,17,122.7,31.25,['21-22'],1
11,18,122.7,31.25,['21-22'],1
11,19,122.7,31.25,['21-22'],1
11,20,122.7,31.25,['21-22'],1
11,21,122.7,31.25,['21-22'],1
11,22,122.7,31.25,['21-22'],1
11,23,122.7,31.25,['21-22'],1
11,24,122.7,31.25,['21-22'],1
11,25,122.7,31.25,['21-22'],1
11,26,122.7,31.25,['21-22'],1
11,27,122.7,31.25,['21-22'],1
11,28,122.7,31.25,['21-22'],1
11,29,122.7,31.25,['21-22'],1
11,30,122.7,31.25,['21-22'],1
11,31,122.7,31.25,['21-22'],1
11,32,122.7,31.25,['21-22'],1
11,33,122.7,31.25,['21-22'],1
11,34,122.7,31.25,['21-22'],1
11,35,122.7,31.25,['21-22'],1
11,36,122.7,31.25,['21-22'],1
11,37,122.7,31.25,['21-22'],1
11,38,122.7,31.25,['21-22'],1
11,39,122.7,31.25,['21-22'],1
12,No generator,91.3,27.8,[],0
12,1,123.1,31.5,['21-22'],1
12,2,123.1,31.5,['21-22'],1
12,3,123.1,31.5,['21-22'],1
12,4,123.1,31.5,['21-22'],1
12,5,123.1,31.5,['21-22'],1
12,6,123.1,31.5,['21-22'],1
12,7,123.1,31.5,['21-22'],1
12,8,123.1,31.5,['21-22'],1
12,9,123.1,31.5,['21-22'],1
12,10,123.1,31.5,['21-22'],1
12,11,123.1,31.5,['21-22'],1
12,12,123.1,31.5,['21-22'],1
12,13,123.1,31.5,['21-22'],1
12,14,123.1,31.5,['21-22'],1
12,15,123.1,31.5,['21-22'],1
12,16,123.1,31.5,['21-22'],1
12,17,123.1,31.5,['21-22'],1
12,18,123.1,31.5,['21-22'],1
12,19,123.1,31.5,['21-22'],1
12,20,123.1,31.5,['21-22'],1
12,21,123.1,31.5,['21-22'],1
12,22,123.1,31.5,['21-22'],1
12,23,123.1,31.5,['21-22'],1
12,24,123.1,31.5,['21-22'],1
12,25,123.1,31.5,['21-22'],1
12,26,123.1,31.5,['21-22'],1
12,27,123.1,31.5,['21-22'],1
12,28,123.1,31.5,['21-22'],1
12,29,123.1,31.5,['21-22'],1
12,30,123.1,31.5,['21-22'],1
12,31,123.1,31.5,['21-22'],1
12,32,123.1,31.5,['21-22'],1
12,33,123.1,31.5,['21-22'],1
12,34,123.1,31.5,['21-22'],1
12,35,123.1,31.5,['21-22'],1
12,36,123.1,31.5,['21-22'],1
12,37,123.1,31.5,['21-22'],1
12,38,123.1,31.5,['21-22'],1
12,39,123.1,31.5,['21-22'],1
13,No generator,92.6,29.299999999999997,[],0
13,1,122.8,27.7,['21-22'],1
13,2,122.8,27.7,['21-22'],1
13,3,122.8,27.7,['21-22'],1
13,4,122.8,27.7,['21-22'],1
13,5,122.8,27.7,['21-22'],1
13,6,122.8,27.7,['21-22'],1
13,7,122.8,27.7,['21-22'],1
13,8,122.8,27.7,['21-22'],1
13,9,122.8,27.7,['21-22'],1
13,10,122.8,27.7,['21-22'],1
13,11,122.8,27.7,['21-22'],1
13,12,122.8,27.7,['21-22'],1
13,13,122.8,27.7,['21-22'],1
13,14,122.8,27.7,['21-22'],1
13,15,122.8,27.7,['21-22'],1
13,16,122.8,27.7,['21-22'],1
13,17,122.8,27.7,['21-22'],1
13,18,122.8,27.7,['21-22'],1
13,19,122.8,27.7,['21-22'],1
13,20,122.8,27.7,['21-22'],1
13,21,122.8,27.7,['21-22'],1
13,22,122.8,27.7,['21-22'],1
13,23,122.8,27.7,['21-22'],1
13,24,122.8,27.7,['21-22'],1
13,25,122.8,27.7,['21-22'],1
13,26,122.8,27.7,['21-22'],1
13,27,122.8,27.7,['21-22'],1
13,28,122.8,27.7,['21-22'],1
13,29,122.8,27.7,['21-22'],1
13,30,122.8,27.7,['21-22'],1
13,31,122.8,27.7,['21-22'],1
13,32,122.8,27.7,['21-22'],1
13,33,122.8,27.7,['21-22'],1
13,34,122.8,27.7,['21-22'],1
13,35,122.8,27.7,['21-22'],1
13,36,122.8,27.7,['21-22'],1
13,37,122.8,27.7,['21-22'],1
13,38,122.8,27.7,['21-22'],1
13,39,122.8,27.7,['21-22'],1
14,No generator,93.6,26.049999999999997,[],0
14,1,122.9,35.85,['21-22'],1
14,2,122.9,35.85,['21-22'],1
14,3,122.9,35.85,['21-22'],1
14,4,122.9,35.85,['21-22'],1
14,5,122.9,35.85,['21-22'],1
14,6,122.9,35.85,['21-22'],1
14,7,122.9,35.85,['21-22'],1
14,8,122.9,35.85,['21-22'],1
14,9,122.9,35.85,['21-22'],1
14,10,122.9,35.85,['21-22'],1
14,11,122.9,35.85,['21-22'],1
14,12,122.9,35.85,['21-22'],1
14,13,122.9,35.85,['21-22'],1
14,14,122.9,35.85,['21-22'],1
14,15,122.9,35.85,['21-22'],1
14,16,122.9,35.85,['21-22'],1
14,17,122.9,35.85,['21-22'],1
14,18,122.9,35.85,['21-22'],1
14,19,122.9,35.85,['21-22'],1
14,20,122.9,35.85,['21-22'],1
14,21,122.9,35.85,['21-22'],1
14,22,122.9,35.85,['21-22'],1
14,23,122.9,35.85,['21-22'],1
14,24,122.9,35.85,['21-22'],1
14,25,122.9,35.85,['21-22'],1
14,26,122.9,35.85,['21-22'],1
14,27,122.9,35.85,['21-22'],1
14,28,122.9,35.85,['21-22'],1
14,29,122.9,35.85,['21-22'],1
14,30,122.9,35.85,['21-22'],1
14,31,122.9,35.85,['21-22'],1
14,32,122.9,35.85,['21-22'],1
14,33,122.9,35.85,['21-22'],1
14,34,122.9,35.85,['21-22'],1
14,35,122.9,35.85,['21-22'],1
14,36,122.9,35.85,['21-22'],1
14,37,122.9,35.85,['21-22'],1
14,38,122.9,35.85,['21-22'],1
14,39,122.9,35.85,['21-22'],1
15,No generator,99.2,31.4,[],0
15,1,123.7,40.2,['21-22'],1
15,2,123.7,40.2,['21-22'],1
15,3,123.7,40.2,['21-22'],1
15,4,123.7,40.2,['21-22'],1
15,5,123.7,40.2,['21-22'],1
15,6,123.7,40.2,['21-22'],1
15,7,123.7,40.2,['21-22'],1
15,8,123.7,40.2,['21-22'],1
15,9,123.7,40.2,['21-22'],1
15,10,123.7,40.2,['21-22'],1
15,11,123.7,40.2,['21-22'],1
15,12,123.7,40.2,['21-22'],1
15,13,123.7,40.2,['21-22'],1
15,14,123.7,40.2,['21-22'],1
15,15,123.7,40.2,['21-22'],1
15,16,123.7,40.2,['21-22'],1
15,17,123.7,40.2,['21-22'],1
15,18,123.7,40.2,['21-22'],1
15,19,123.7,40.2,['21-22'],1
15,20,123.7,40.2,['21-22'],1
15,21,123.7,40.2,['21-22'],1
15,22,123.7,40.2,['21-22'],1
15,23,123.7,40.2,['21-22'],1
15,24,123.7,40.2,['21-22'],1
15,25,123.7,40.2,['21-22'],1
15,26,123.7,40.2,['21-22'],1
15,27,123.7,40.2,['21-22'],1
15,28,123.7,40.2,['21-22'],1
15,29,123.7,40.2,['21-22'],1
15,30,123.7,40.2,['21-22'],1
15,31,123.7,40.2,['21-22'],1
15,32,123.7,40.2,['21-22'],1
15,33,123.7,40.2,['21-22'],1
15,34,123.7,40.2,['21-22'],1
15,35,123.7,40.2,['21-22'],1
15,36,123.7,40.2,['21-22'],1
15,37,123.7,40.2,['21-22'],1
15,38,123.7,40.2,['21-22'],1
15,39,123.7,40.2,['21-22'],1
16,No generator,101.1,33.0,['5-6'],1
16,1,123.4,41.05,['21-22'],1
16,2,123.4,41.05,['21-22'],1
16,3,123.4,41.05,['21-22'],1
16,4,123.4,41.05,['21-22'],1
16,5,123.4,41.05,['21-22'],1
16,6,123.4,41.05,['21-22'],1
16,7,123.4,41.05,['21-22'],1
16,8,123.4,41.05,['21-22'],1
16,9,123.4,41.05,['21-22'],1
16,10,123.4,41.05,['21-22'],1
16,11,123.4,41.05,['21-22'],1
16,12,123.4,41.05,['21-22'],1
16,13,123.4,41.05,['21-22'],1
16,14,123.4,41.05,['21-22'],1
16,15,123.4,41.05,['21-22'],1
16,16,123.4,41.05,['21-22'],1
16,17,123.4,41.05,['21-22'],1
16,18,123.4,41.05,['21-22'],1
16,19,123.4,41.05,['21-22'],1
16,20,123.4,41.05,['21-22'],1
16,21,123.4,41.05,['21-22'],1
16,22,123.4,41.05,['21-22'],1
16,23,123.4,41.05,['21-22'],1
16,24,123.4,41.05,['21-22'],1
16,25,123.4,41.05,['21-22'],1
16,26,123.4,41.05,['21-22'],1
16,27,123.4,41.05,['21-22'],1
16,28,123.4,41.05,['21-22'],1
16,29,123.4,41.05,['21-22'],1
16,30,123.4,41.05,['21-22'],1
16,31,123.4,41.05,['21-22'],1
16,32,123.4,41.05,['21-22'],1
16,33,123.4,41.05,['21-22'],1
16,34,123.4,41.05,['21-22'],1
16,35,123.4,41.05,['21-22'],1
16,36,123.4,41.05,['21-22'],1
16,37,123.4,41.05,['21-22'],1
16,38,123.4,41.05,['21-22'],1
16,39,123.4,41.05,['21-22'],1
17,No generator,103.1,38.849999999999994,['5-6'],1
17,1,123.3,44.3,['21-22'],1
17,2,123.3,44.3,['21-22'],1
17,3,123.3,44.3,['21-22'],1
17,4,123.3,44.3,['21-22'],1
17,5,123.3,44.3,['21-22'],1
17,6,123.3,44.3,['21-22'],1
17,7,123.3,44.3,['21-22'],1
17,8,123.3,44.3,['21-22'],1
17,9,123.3,44.3,['21-22'],1
17,10,123.3,44.3,['21-22'],1
17,11,123.3,44.3,['21-22'],1
17,12,123.3,44.3,['21-22'],1
17,13,123.3,44.3,['21-22'],1
17,14,123.3,44.3,['21-22'],1
17,15,123.3,44.3,['21-22'],1
17,16,123.3,44.3,['21-22'],1
17,17,123.3,44.3,['21-22'],1
17,18,123.3,44.3,['21-22'],1
17,19,123.3,44.3,['21-22'],1
17,20,123.3,44.3,['21-22'],1
17,21,123.3,44.3,['21-22'],1
17,22,123.3,44.3,['21-22'],1
17,23,123.3,44.3,['21-22'],1
17,24,123.3,44.3,['21-22'],1
17,25,123.3,44.3,['21-22'],1
17,26,123.3,44.3,['21-22'],1
17,27,123.3,44.3,['21-22'],1
17,28,123.3,44.3,['21-22'],1
17,29,123.3,44.3,['21-22'],1
17,30,123.3,44.3,['21-22'],1
17,31,123.3,44.3,['21-22'],1
17,32,123.3,44.3,['21-22'],1
17,33,123.3,44.3,['21-22'],1
17,34,123.3,44.3,['21-22'],1
17,35,123.3,44.3,['21-22'],1
17,36,123.3,44.3,['21-22'],1
17,37,123.3,44.3,['21-22'],1
17,38,123.3,44.3,['21-22'],1
17,39,123.3,44.3,['21-22'],1
18,No generator,124.2,39.95,"['5-6', '17-18']",2
18,1,123.3,43.9,"['17-18', '21-22']",2
18,2,123.3,43.9,"['17-18', '21-22']",2
18,3,123.3,43.9,"['17-18', '21-22']",2
18,4,123.3,43.9,"['17-18', '21-22']",2
18,5,123.3,43.9,"['17-18', '21-22']",2
18,6,123.3,43.9,"['17-18', '21-22']",2
18,7,123.3,43.9,"['17-18', '21-22']",2
18,8,123.3,43.9,"['17-18', '21-22']",2
18,9,123.3,43.9,"['17-18', '21-22']",2
18,10,123.3,43.9,"['17-18', '21-22']",2
18,11,123.3,43.9,"['17-18', '21-22']",2
18,12,123.3,43.9,"['17-18', '21-22']",2
18,13,123.3,43.9,"['17-18', '21-22']",2
18,14,123.3,43.9,"['17-18', '21-22']",2
18,15,123.3,43.9,"['17-18', '21-22']",2
18,16,123.3,43.9,"['17-18', '21-22']",2
18,17,123.3,43.9,"['17-18', '21-22']",2
18,18,123.3,43.9,"['17-18', '21-22']",2
18,19,123.3,43.9,"['17-18', '21-22']",2
18,20,123.3,43.9,"['17-18', '21-22']",2
18,21,123.3,43.9,"['17-18', '21-22']",2
18,22,123.3,43.9,"['17-18', '21-22']",2
18,23,123.3,43.9,"['17-18', '21-22']",2
18,24,123.3,43.9,"['17-18', '21-22']",2
18,25,123.3,43.9,"['17-18', '21-22']",2
18,26,123.3,43.9,"['17-18', '21-22']",2
18,27,123.3,43.9,"['17-18', '21-22']",2
18,28,123.3,43.9,"['17-18', '21-22']",2
18,29,123.3,43.9,"['17-18', '21-22']",2
18,30,123.3,43.9,"['17-18', '21-22']",2
18,31,123.3,43.9,"['17-18', '21-22']",2
18,32,123.3,43.9,"['17-18', '21-22']",2
18,33,123.3,43.9,"['17-18', '21-22']",2
18,34,123.3,43.9,"['17-18', '21-22']",2
18,35,123.3,43.9,"['17-18', '21-22']",2
18,36,123.3,43.9,"['17-18', '21-22']",2
18,37,123.3,43.9,"['17-18', '21-22']",2
18,38,123.3,43.9,"['17-18', '21-22']",2
18,39,123.3,43.9,"['17-18', '21-22']",2
19,No generator,111.5,33.05,"['5-6', '16-19']",2
19,1,123.1,41.1,"['16-19', '21-22']",2
19,2,123.1,41.1,"['16-19', '21-22']",2
19,3,123.1,41.1,"['16-19', '21-22']",2
19,4,123.1,41.1,"['16-19', '21-22']",2
19,5,123.1,41.1,"['16-19', '21-22']",2
19,6,123.1,41.1,"['16-19', '21-22']",2
19,7,123.1,41.1,"['16-19', '21-22']",2
19,8,123.1,41.1,"['16-19', '21-22']",2
19,9,123.1,41.1,"['16-19', '21-22']",2
19,10,123.1,41.1,"['16-19', '21-22']",2
19,11,123.1,41.1,"['16-19', '21-22']",2
19,12,123.1,41.1,"['16-19', '21-22']",2
19,13,123.1,41.1,"['16-19', '21-22']",2
19,14,123.1,41.1,"['16-19', '21-22']",2
19,15,123.1,41.1,"['16-19', '21-22']",2
19,16,123.1,41.1,"['16-19', '21-22']",2
19,17,123.1,41.1,"['16-19', '21-22']",2
19,18,123.1,41.1,"['16-19', '21-22']",2
19,19,123.1,41.1,"['16-19', '21-22']",2
19,20,123.1,41.1,"['16-19', '21-22']",2
19,21,123.1,41.1,"['16-19', '21-22']",2
19,22,123.1,41.1,"['16-19', '21-22']",2
19,23,123.1,41.1,"['16-19', '21-22']",2
19,24,123.1,41.1,"['16-19', '21-22']",2
19,25,123.1,41.1,"['16-19', '21-22']",2
19,26,123.1,41.1,"['16-19', '21-22']",2
19,27,123.1,41.1,"['16-19', '21-22']",2
19,28,123.1,41.1,"['16-19', '21-22']",2
19,29,123.1,41.1,"['16-19', '21-22']",2
19,30,123.1,41.1,"['16-19', '21-22']",2
19,31,123.1,41.1,"['16-19', '21-22']",2
19,32,123.1,41.1,"['16-19', '21-22']",2
19,33,123.1,41.1,"['16-19', '21-22']",2
19,34,123.1,41.1,"['16-19', '21-22']",2
19,35,123.1,41.1,"['16-19', '21-22']",2
19,36,123.1,41.1,"['16-19', '21-22']",2
19,37,123.1,41.1,"['16-19', '21-22']",2
19,38,123.1,41.1,"['16-19', '21-22']",2
19,39,123.1,41.1,"['16-19', '21-22']",2
20,No generator,112.8,33.5,"['5-6', '16-19']",2
20,1,123.5,41.150000000000006,"['16-19', '21-22']",2
20,2,123.5,41.150000000000006,"['16-19', '21-22']",2
20,3,123.5,41.150000000000006,"['16-19', '21-22']",2
20,4,123.5,41.150000000000006,"['16-19', '21-22']",2
20,5,123.5,41.150000000000006,"['16-19', '21-22']",2
20,6,123.5,41.150000000000006,"['16-19', '21-22']",2
20,7,123.5,41.150000000000006,"['16-19', '21-22']",2
20,8,123.5,41.150000000000006,"['16-19', '21-22']",2
20,9,123.5,41.150000000000006,"['16-19', '21-22']",2
20,10,123.5,41.150000000000006,"['16-19', '21-22']",2
20,11,123.5,41.150000000000006,"['16-19', '21-22']",2
20,12,123.5,41.150000000000006,"['16-19', '21-22']",2
20,13,123.5,41.150000000000006,"['16-19', '21-22']",2
20,14,123.5,41.150000000000006,"['16-19', '21-22']",2
20,15,123.5,41.150000000000006,"['16-19', '21-22']",2
20,16,123.5,41.150000000000006,"['16-19', '21-22']",2
20,17,123.5,41.150000000000006,"['16-19', '21-22']",2
20,18,123.5,41.150000000000006,"['16-19', '21-22']",2
20,19,123.5,41.150000000000006,"['16-19', '21-22']",2
20,20,123.5,41.150000000000006,"['16-19', '21-22']",2
20,21,123.5,41.150000000000006,"['16-19', '21-22']",2
20,22,123.5,41.150000000000006,"['16-19', '21-22']",2
20,23,123.5,41.150000000000006,"['16-19', '21-22']",2
20,24,123.5,41.150000000000006,"['16-19', '21-22']",2
20,25,123.5,41.150000000000006,"['16-19', '21-22']",2
20,26,123.5,41.150000000000006,"['16-19', '21-22']",2
20,27,123.5,41.150000000000006,"['16-19', '21-22']",2
20,28,123.5,41.150000000000006,"['16-19', '21-22']",2
20,29,123.5,41.150000000000006,"['16-19', '21-22']",2
20,30,123.5,41.150000000000006,"['16-19', '21-22']",2
20,31,123.5,41.150000000000006,"['16-19', '21-22']",2
20,32,123.5,41.150000000000006,"['16-19', '21-22']",2
20,33,123.5,41.150000000000006,"['16-19', '21-22']",2
20,34,123.5,41.150000000000006,"['16-19', '21-22']",2
20,35,123.5,41.150000000000006,"['16-19', '21-22']",2
20,36,123.5,41.150000000000006,"['16-19', '21-22']",2
20,37,123.5,41.150000000000006,"['16-19', '21-22']",2
20,38,123.5,41.150000000000006,"['16-19', '21-22']",2
20,39,123.5,41.150000000000006,"['16-19', '21-22']",2
21,No generator,113.8,33.7,"['5-6', '21-22']",2
21,1,159.2,40.35,['21-22'],1
21,2,159.2,40.35,['21-22'],1
21,3,159.2,40.35,['21-22'],1
21,4,159.2,40.35,['21-22'],1
21,5,159.2,40.35,['21-22'],1
21,6,159.2,40.35,['21-22'],1
21,7,159.2,40.35,['21-22'],1
21,8,159.2,40.35,['21-22'],1
21,9,159.2,40.35,['21-22'],1
21,10,159.2,40.35,['21-22'],1
21,11,159.2,40.35,['21-22'],1
21,12,159.2,40.35,['21-22'],1
21,13,159.2,40.35,['21-22'],1
21,14,159.2,40.35,['21-22'],1
21,15,159.2,40.35,['21-22'],1
21,16,159.2,40.35,['21-22'],1
21,17,159.2,40.35,['21-22'],1
21,18,159.2,40.35,['21-22'],1
21,19,159.2,40.35,['21-22'],1
21,20,159.2,40.35,['21-22'],1
21,21,159.2,40.35,['21-22'],1
21,22,159.2,40.35,['21-22'],1
21,23,159.2,40.35,['21-22'],1
21,24,159.2,40.35,['21-22'],1
21,25,159.2,40.35,['21-22'],1
21,26,159.2,40.35,['21-22'],1
21,27,159.2,40.35,['21-22'],1
21,28,159.2,40.35,['21-22'],1
21,29,159.2,40.35,['21-22'],1
21,30,159.2,40.35,['21-22'],1
21,31,159.2,40.35,['21-22'],1
21,32,159.2,40.35,['21-22'],1
21,33,159.2,40.35,['21-22'],1
21,34,159.2,40.35,['21-22'],1
21,35,159.2,40.35,['21-22'],1
21,36,159.2,40.35,['21-22'],1
21,37,159.2,40.35,['21-22'],1
21,38,159.2,40.35,['21-22'],1
21,39,159.2,40.35,['21-22'],1
22,No generator,100.8,32.75,['5-6'],1
22,1,91.2,41.1,[],0
22,2,91.2,41.1,[],0
22,3,91.2,41.1,[],0
22,4,91.2,41.1,[],0
22,5,91.2,41.1,[],0
22,6,91.2,41.1,[],0
22,7,91.2,41.1,[],0
22,8,91.2,41.1,[],0
22,9,91.2,41.1,[],0
22,10,91.2,41.1,[],0
22,11,91.2,41.1,[],0
22,12,91.2,41.1,[],0
22,13,91.2,41.1,[],0
22,14,91.2,41.1,[],0
22,15,91.2,41.1,[],0
22,16,91.2,41.1,[],0
22,17,91.2,41.1,[],0
22,18,91.2,41.1,[],0
22,19,91.2,41.1,[],0
22,20,91.2,41.1,[],0
22,21,91.2,41.1,[],0
22,22,91.2,41.1,[],0
22,23,91.2,41.1,[],0
22,24,91.2,41.1,[],0
22,25,91.2,41.1,[],0
22,26,91.2,41.1,[],0
22,27,91.2,41.1,[],0
22,28,91.2,41.1,[],0
22,29,91.2,41.1,[],0
22,30,91.2,41.1,[],0
22,31,91.2,41.1,[],0
22,32,91.2,41.1,[],0
22,33,91.2,41.1,[],0
22,34,91.2,41.1,[],0
22,35,91.2,41.1,[],0
22,36,91.2,41.1,[],0
22,37,91.2,41.1,[],0
22,38,91.2,41.1,[],0
22,39,91.2,41.1,[],0
23,No generator,114.1,32.8,"['5-6', '22-23']",2
23,1,114.1,40.45,['22-23'],1
23,2,114.1,40.45,['22-23'],1
23,3,114.1,40.45,['22-23'],1
23,4,114.1,40.45,['22-23'],1
23,5,114.1,40.45,['22-23'],1
23,6,114.1,40.45,['22-23'],1
23,7,114.1,40.45,['22-23'],1
23,8,114.1,40.45,['22-23'],1
23,9,114.1,40.45,['22-23'],1
23,10,114.1,40.45,['22-23'],1
23,11,114.1,40.45,['22-23'],1
23,12,114.1,40.45,['22-23'],1
23,13,114.1,40.45,['22-23'],1
23,14,114.1,40.45,['22-23'],1
23,15,114.1,40.45,['22-23'],1
23,16,114.1,40.45,['22-23'],1
23,17,114.1,40.45,['22-23'],1
23,18,114.1,40.45,['22-23'],1
23,19,114.1,40.45,['22-23'],1
23,20,114.1,40.45,['22-23'],1
23,21,114.1,40.45,['22-23'],1
23,22,114.1,40.45,['22-23'],1
23,23,114.1,40.45,['22-23'],1
23,24,114.1,40.45,['22-23'],1
23,25,114.1,40.45,['22-23'],1
23,26,114.1,40.45,['22-23'],1
23,27,114.1,40.45,['22-23'],1
23,28,114.1,40.45,['22-23'],1
23,29,114.1,40.45,['22-23'],1
23,30,114.1,40.45,['22-23'],1
23,31,114.1,40.45,['22-23'],1
23,32,114.1,40.45,['22-23'],1
23,33,114.1,40.45,['22-23'],1
23,34,114.1,40.45,['22-23'],1
23,35,114.1,40.45,['22-23'],1
23,36,114.1,40.45,['22-23'],1
23,37,114.1,40.45,['22-23'],1
23,38,114.1,40.45,['22-23'],1
23,39,114.1,40.45,['22-23'],1
24,No generator,177.5,33.75,"['5-6', '16-24']",2
24,1,177.4,42.2,"['16-24', '21-22']",2
24,2,177.4,42.2,"['16-24', '21-22']",2
24,3,177.4,42.2,"['16-24', '21-22']",2
24,4,177.4,42.2,"['16-24', '21-22']",2
24,5,177.4,42.2,"['16-24', '21-22']",2
24,6,177.4,42.2,"['16-24', '21-22']",2
24,7,177.4,42.2,"['16-24', '21-22']",2
24,8,177.4,42.2,"['16-24', '21-22']",2
24,9,177.4,42.2,"['16-24', '21-22']",2
24,10,177.4,42.2,"['16-24', '21-22']",2
24,11,177.4,42.2,"['16-24', '21-22']",2
24,12,177.4,42.2,"['16-24', '21-22']",2
24,13,177.4,42.2,"['16-24', '21-22']",2
24,14,177.4,42.2,"['16-24', '21-22']",2
24,15,177.4,42.2,"['16-24', '21-22']",2
24,16,177.4,42.2,"['16-24', '21-22']",2
24,17,177.4,42.2,"['16-24', '21-22']",2
24,18,177.4,42.2,"['16-24', '21-22']",2
24,19,177.4,42.2,"['16-24', '21-22']",2
24,20,177.4,42.2,"['16-24', '21-22']",2
24,21,177.4,42.2,"['16-24', '21-22']",2
24,22,177.4,42.2,"['16-24', '21-22']",2
24,23,177.4,42.2,"['16-24', '21-22']",2
24,24,177.4,42.2,"['16-24', '21-22']",2
24,25,177.4,42.2,"['16-24', '21-22']",2
24,26,177.4,42.2,"['16-24', '21-22']",2
24,27,177.4,42.2,"['16-24', '21-22']",2
24,28,177.4,42.2,"['16-24', '21-22']",2
24,29,177.4,42.2,"['16-24', '21-22']",2
24,30,177.4,42.2,"['16-24', '21-22']",2
24,31,177.4,42.2,"['16-24', '21-22']",2
24,32,177.4,42.2,"['16-24', '21-22']",2
24,33,177.4,42.2,"['16-24', '21-22']",2
24,34,177.4,42.2,"['16-24', '21-22']",2
24,35,177.4,42.2,"['16-24', '21-22']",2
24,36,177.4,42.2,"['16-24', '21-22']",2
24,37,177.4,42.2,"['16-24', '21-22']",2
24,38,177.4,42.2,"['16-24', '21-22']",2
24,39,177.4,42.2,"['16-24', '21-22']",2
25,No generator,106.0,37.7,['5-6'],1
25,1,122.5,34.85,['21-22'],1
25,2,122.5,34.85,['21-22'],1
25,3,122.5,34.85,['21-22'],1
25,4,122.5,34.85,['21-22'],1
25,5,122.5,34.85,['21-22'],1
25,6,122.5,34.85,['21-22'],1
25,7,122.5,34.85,['21-22'],1
25,8,122.5,34.85,['21-22'],1
25,9,122.5,34.85,['21-22'],1
25,10,122.5,34.85,['21-22'],1
25,11,122.5,34.85,['21-22'],1
25,12,122.5,34.85,['21-22'],1
25,13,122.5,34.85,['21-22'],1
25,14,122.5,34.85,['21-22'],1
25,15,122.5,34.85,['21-22'],1
25,16,122.5,34.85,['21-22'],1
25,17,122.5,34.85,['21-22'],1
25,18,122.5,34.85,['21-22'],1
25,19,122.5,34.85,['21-22'],1
25,20,122.5,34.85,['21-22'],1
25,21,122.5,34.85,['21-22'],1
25,22,122.5,34.85,['21-22'],1
25,23,122.5,34.85,['21-22'],1
25,24,122.5,34.85,['21-22'],1
25,25,122.5,34.85,['21-22'],1
25,26,122.5,34.85,['21-22'],1
25,27,122.5,34.85,['21-22'],1
25,28,122.5,34.85,['21-22'],1
25,29,122.5,34.85,['21-22'],1
25,30,122.5,34.85,['21-22'],1
25,31,122.5,34.85,['21-22'],1
25,32,122.5,34.85,['21-22'],1
25,33,122.5,34.85,['21-22'],1
25,34,122.5,34.85,['21-22'],1
25,35,122.5,34.85,['21-22'],1
25,36,122.5,34.85,['21-22'],1
25,37,122.5,34.85,['21-22'],1
25,38,122.5,34.85,['21-22'],1
25,39,122.5,34.85,['21-22'],1
26,No generator,116.3,37.85,"['5-6', '17-27', '25-26']",3
26,1,123.1,42.3,"['17-27', '21-22', '25-26']",3
26,2,123.1,42.3,"['17-27', '21-22', '25-26']",3
26,3,123.1,42.3,"['17-27', '21-22', '25-26']",3
26,4,123.1,42.3,"['17-27', '21-22', '25-26']",3
26,5,123.1,42.3,"['17-27', '21-22', '25-26']",3
26,6,123.1,42.3,"['17-27', '21-22', '25-26']",3
26,7,123.1,42.3,"['17-27', '21-22', '25-26']",3
26,8,123.1,42.3,"['17-27', '21-22', '25-26']",3
26,9,123.1,42.3,"['17-27', '21-22', '25-26']",3
26,10,123.1,42.3,"['17-27', '21-22', '25-26']",3
26,11,123.1,42.3,"['17-27', '21-22', '25-26']",3
26,12,123.1,42.3,"['17-27', '21-22', '25-26']",3
26,13,123.1,42.3,"['17-27', '21-22', '25-26']",3
26,14,123.1,42.3,"['17-27', '21-22', '25-26']",3
26,15,123.1,42.3,"['17-27', '21-22', '25-26']",3
26,16,123.1,42.3,"['17-27', '21-22', '25-26']",3
26,17,123.1,42.3,"['17-27', '21-22', '25-26']",3
26,18,123.1,42.3,"['17-27', '21-22', '25-26']",3
26,19,123.1,42.3,"['17-27', '21-22', '25-26']",3
26,20,123.1,42.3,"['17-27', '21-22', '25-26']",3
26,21,123.1,42.3,"['17-27', '21-22', '25-26']",3
26,22,123.1,42.3,"['17-27', '21-22', '25-26']",3
26,23,123.1,42.3,"['17-27', '21-22', '25-26']",3
26,24,123.1,42.3,"['17-27', '21-22', '25-26']",3
26,25,123.1,42.3,"['17-27', '21-22', '25-26']",3
26,26,123.1,42.3,"['17-27', '21-22', '25-26']",3
26,27,123.1,42.3,"['17-27', '21-22', '25-26']",3
26,28,123.1,42.3,"['17-27', '21-22', '25-26']",3
26,29,123.1,42.3,"['17-27', '21-22', '25-26']",3
26,30,123.1,42.3,"['17-27', '21-22', '25-26']",3
26,31,123.1,42.3,"['17-27', '21-22', '25-26']",3
26,32,123.1,42.3,"['17-27', '21-22', '25-26']",3
26,33,123.1,42.3,"['17-27', '21-22', '25-26']",3
26,34,123.1,42.3,"['17-27', '21-22', '25-26']",3
26,35,123.1,42.3,"['17-27', '21-22', '25-26']",3
26,36,123.1,42.3,"['17-27', '21-22', '25-26']",3
26,37,123.1,42.3,"['17-27', '21-22', '25-26']",3
26,38,123.1,42.3,"['17-27', '21-22', '25-26']",3
26,39,123.1,42.3,"['17-27', '21-22', '25-26']",3
27,No generator,145.2,37.45,"['5-6', '17-27', '26-27']",3
27,1,131.5,44.45,"['17-27', '21-22', '26-27']",3
27,2,131.5,44.45,"['17-27', '21-22', '26-27']",3
27,3,131.5,44.45,"['17-27', '21-22', '26-27']",3
27,4,131.5,44.45,"['17-27', '21-22', '26-27']",3
27,5,131.5,44.45,"['17-27', '21-22', '26-27']",3
27,6,131.5,44.45,"['17-27', '21-22', '26-27']",3
27,7,131.5,44.45,"['17-27', '21-22', '26-27']",3
27,8,131.5,44.45,"['17-27', '21-22', '26-27']",3
27,9,131.5,44.45,"['17-27', '21-22', '26-27']",3
27,10,131.5,44.45,"['17-27', '21-22', '26-27']",3
27,11,131.5,44.45,"['17-27', '21-22', '26-27']",3
27,12,131.5,44.45,"['17-27', '21-22', '26-27']",3
27,13,131.5,44.45,"['17-27', '21-22', '26-27']",3
27,14,131.5,44.45,"['17-27', '21-22', '26-27']",3
27,15,131.5,44.45,"['17-27', '21-22', '26-27']",3
27,16,131.5,44.45,"['17-27', '21-22', '26-27']",3
27,17,131.5,44.45,"['17-27', '21-22', '26-27']",3
27,18,131.5,44.45,"['17-27', '21-22', '26-27']",3
27,19,131.5,44.45,"['17-27', '21-22', '26-27']",3
27,20,131.5,44.45,"['17-27', '21-22', '26-27']",3
27,21,131.5,44.45,"['17-27', '21-22', '26-27']",3
27,22,131.5,44.45,"['17-27', '21-22', '26-27']",3
27,23,131.5,44.45,"['17-27', '21-22', '26-27']",3
27,24,131.5,44.45,"['17-27', '21-22', '26-27']",3
27,25,131.5,44.45,"['17-27', '21-22', '26-27']",3
27,26,131.5,44.45,"['17-27', '21-22', '26-27']",3
27,27,131.5,44.45,"['17-27', '21-22', '26-27']",3
27,28,131.5,44.45,"['17-27', '21-22', '26-27']",3
27,29,131.5,44.45,"['17-27', '21-22', '26-27']",3
27,30,131.5,44.45,"['17-27', '21-22', '26-27']",3
27,31,131.5,44.45,"['17-27', '21-22', '26-27']",3
27,32,131.5,44.45,"['17-27', '21-22', '26-27']",3
27,33,131.5,44.45,"['17-27', '21-22', '26-27']",3
27,34,131.5,44.45,"['17-27', '21-22', '26-27']",3
27,35,131.5,44.45,"['17-27', '21-22', '26-27']",3
27,36,131.5,44.45,"['17-27', '21-22', '26-27']",3
27,37,131.5,44.45,"['17-27', '21-22', '26-27']",3
27,38,131.5,44.45,"['17-27', '21-22', '26-27']",3
27,39,131.5,44.45,"['17-27', '21-22', '26-27']",3
28,No generator,148.8,40.650000000000006,"['5-6', '17-27', '25-26', '28-29']",4
28,1,148.8,44.85,"['17-27', '21-22', '25-26', '28-29']",4
28,2,148.8,44.85,"['17-27', '21-22', '25-26', '28-29']",4
28,3,148.8,44.85,"['17-27', '21-22', '25-26', '28-29']",4
28,4,148.8,44.85,"['17-27', '21-22', '25-26', '28-29']",4
28,5,148.8,44.85,"['17-27', '21-22', '25-26', '28-29']",4
28,6,148.8,44.85,"['17-27', '21-22', '25-26', '28-29']",4
28,7,148.8,44.85,"['17-27', '21-22', '25-26', '28-29']",4
28,8,148.8,44.85,"['17-27', '21-22', '25-26', '28-29']",4
28,9,148.8,44.85,"['17-27', '21-22', '25-26', '28-29']",4
28,10,148.8,44.85,"['17-27', '21-22', '25-26', '28-29']",4
28,11,148.8,44.85,"['17-27', '21-22', '25-26', '28-29']",4
28,12,148.8,44.85,"['17-27', '21-22', '25-26', '28-29']",4
28,13,148.8,44.85,"['17-27', '21-22', '25-26', '28-29']",4
28,14,148.8,44.85,"['17-27', '21-22', '25-26', '28-29']",4
28,15,148.8,44.85,"['17-27', '21-22', '25-26', '28-29']",4
28,16,148.8,44.85,"['17-27', '21-22', '25-26', '28-29']",4
28,17,148.8,44.85,"['17-27', '21-22', '25-26', '28-29']",4
28,18,148.8,44.85,"['17-27', '21-22', '25-26', '28-29']",4
28,19,148.8,44.85,"['17-27', '21-22', '25-26', '28-29']",4
28,20,148.8,44.85,"['17-27', '21-22', '25-26', '28-29']",4
28,21,148.8,44.85,"['17-27', '21-22', '25-26', '28-29']",4
28,22,148.8,44.85,"['17-27', '21-22', '25-26', '28-29']",4
28,23,148.8,44.85,"['17-27', '21-22', '25-26', '28-29']",4
28,24,148.8,44.85,"['17-27', '21-22', '25-26', '28-29']",4
28,25,148.8,44.85,"['17-27', '21-22', '25-26', '28-29']",4
28,26,148.8,44.85,"['17-27', '21-22', '25-26', '28-29']",4
28,27,148.8,44.85,"['17-27', '21-22', '25-26', '28-29']",4
28,28,148.8,44.85,"['17-27', '21-22', '25-26', '28-29']",4
28,29,148.8,44.85,"['17-27', '21-22', '25-26', '28-29']",4
28,30,148.8,44.85,"['17-27', '21-22', '25-26', '28-29']",4
28,31,148.8,44.85,"['17-27', '21-22', '25-26', '28-29']",4
28,32,148.8,44.85,"['17-27', '21-22', '25-26', '28-29']",4
28,33,148.8,44.85,"['17-27', '21-22', '25-26', '28-29']",4
28,34,148.8,44.85,"['17-27', '21-22', '25-26', '28-29']",4
28,35,148.8,44.85,"['17-27', '21-22', '25-26', '28-29']",4
28,36,148.8,44.85,"['17-27', '21-22', '25-26', '28-29']",4
28,37,148.8,44.85,"['17-27', '21-22', '25-26', '28-29']",4
28,38,148.8,44.85,"['17-27', '21-22', '25-26', '28-29']",4
28,39,148.8,44.85,"['17-27', '21-22', '25-26', '28-29']",4
29,No generator,117.1,38.0,"['5-6', '17-27', '25-26']",3
29,1,123.1,44.7,"['17-27', '21-22', '25-26']",3
29,2,123.1,44.7,"['17-27', '21-22', '25-26']",3
29,3,123.1,44.7,"['17-27', '21-22', '25-26']",3
29,4,123.1,44.7,"['17-27', '21-22', '25-26']",3
29,5,123.1,44.7,"['17-27', '21-22', '25-26']",3
29,6,123.1,44.7,"['17-27', '21-22', '25-26']",3
29,7,123.1,44.7,"['17-27', '21-22', '25-26']",3
29,8,123.1,44.7,"['17-27', '21-22', '25-26']",3
29,9,123.1,44.7,"['17-27', '21-22', '25-26']",3
29,10,123.1,44.7,"['17-27', '21-22', '25-26']",3
29,11,123.1,44.7,"['17-27', '21-22', '25-26']",3
29,12,123.1,44.7,"['17-27', '21-22', '25-26']",3
29,13,123.1,44.7,"['17-27', '21-22', '25-26']",3
29,14,123.1,44.7,"['17-27', '21-22', '25-26']",3
29,15,123.1,44.7,"['17-27', '21-22', '25-26']",3
29,16,123.1,44.7,"['17-27', '21-22', '25-26']",3
29,17,123.1,44.7,"['17-27', '21-22', '25-26']",3
29,18,123.1,44.7,"['17-27', '21-22', '25-26']",3
29,19,123.1,44.7,"['17-27', '21-22', '25-26']",3
29,20,123.1,44.7,"['17-27', '21-22', '25-26']",3
29,21,123.1,44.7,"['17-27', '21-22', '25-26']",3
29,22,123.1,44.7,"['17-27', '21-22', '25-26']",3
29,23,123.1,44.7,"['17-27', '21-22', '25-26']",3
29,24,123.1,44.7,"['17-27', '21-22', '25-26']",3
29,25,123.1,44.7,"['17-27', '21-22', '25-26']",3
29,26,123.1,44.7,"['17-27', '21-22', '25-26']",3
29,27,123.1,44.7,"['17-27', '21-22', '25-26']",3
29,28,123.1,44.7,"['17-27', '21-22', '25-26']",3
29,29,123.1,44.7,"['17-27', '21-22', '25-26']",3
29,30,123.1,44.7,"['17-27', '21-22', '25-26']",3
29,31,123.1,44.7,"['17-27', '21-22', '25-26']",3
29,32,123.1,44.7,"['17-27', '21-22', '25-26']",3
29,33,123.1,44.7,"['17-27', '21-22', '25-26']",3
29,34,123.1,44.7,"['17-27', '21-22', '25-26']",3
29,35,123.1,44.7,"['17-27', '21-22', '25-26']",3
29,36,123.1,44.7,"['17-27', '21-22', '25-26']",3
29,37,123.1,44.7,"['17-27', '21-22', '25-26']",3
29,38,123.1,44.7,"['17-27', '21-22', '25-26']",3
29,39,123.1,44.7,"['17-27', '21-22', '25-26']",3
30,No generator,105.8,35.2,['5-6'],1
30,1,122.6,33.0,['21-22'],1
30,2,122.6,33.0,['21-22'],1
30,3,122.6,33.0,['21-22'],1
30,4,122.6,33.0,['21-22'],1
30,5,122.6,33.0,['21-22'],1
30,6,122.6,33.0,['21-22'],1
30,7,122.6,33.0,['21-22'],1
30,8,122.6,33.0,['21-22'],1
30,9,122.6,33.0,['21-22'],1
30,10,122.6,33.0,['21-22'],1
30,11,122.6,33.0,['21-22'],1
30,12,122.6,33.0,['21-22'],1
30,13,122.6,33.0,['21-22'],1
30,14,122.6,33.0,['21-22'],1
30,15,122.6,33.0,['21-22'],1
30,16,122.6,33.0,['21-22'],1
30,17,122.6,33.0,['21-22'],1
30,18,122.6,33.0,['21-22'],1
30,19,122.6,33.0,['21-22'],1
30,20,122.6,33.0,['21-22'],1
30,21,122.6,33.0,['21-22'],1
30,22,122.6,33.0,['21-22'],1
30,23,122.6,33.0,['21-22'],1
30,24,122.6,33.0,['21-22'],1
30,25,122.6,33.0,['21-22'],1
30,26,122.6,33.0,['21-22'],1
30,27,122.6,33.0,['21-22'],1
30,28,122.6,33.0,['21-22'],1
30,29,122.6,33.0,['21-22'],1
30,30,122.6,33.0,['21-22'],1
30,31,122.6,33.0,['21-22'],1
30,32,122.6,33.0,['21-22'],1
30,33,122.6,33.0,['21-22'],1
30,34,122.6,33.0,['21-22'],1
30,35,122.6,33.0,['21-22'],1
30,36,122.6,33.0,['21-22'],1
30,37,122.6,33.0,['21-22'],1
30,38,122.6,33.0,['21-22'],1
30,39,122.6,33.0,['21-22'],1
31,No generator,90.9,29.450000000000003,[],0
31,1,122.7,30.6,['21-22'],1
31,2,122.7,30.6,['21-22'],1
31,3,122.7,30.6,['21-22'],1
31,4,122.7,30.6,['21-22'],1
31,5,122.7,30.6,['21-22'],1
31,6,122.7,30.6,['21-22'],1
31,7,122.7,30.6,['21-22'],1
31,8,122.7,30.6,['21-22'],1
31,9,122.7,30.6,['21-22'],1
31,10,122.7,30.6,['21-22'],1
31,11,122.7,30.6,['21-22'],1
31,12,122.7,30.6,['21-22'],1
31,13,122.7,30.6,['21-22'],1
31,14,122.7,30.6,['21-22'],1
31,15,122.7,30.6,['21-22'],1
31,16,122.7,30.6,['21-22'],1
31,17,122.7,30.6,['21-22'],1
31,18,122.7,30.6,['21-22'],1
31,19,122.7,30.6,['21-22'],1
31,20,122.7,30.6,['21-22'],1
31,21,122.7,30.6,['21-22'],1
31,22,122.7,30.6,['21-22'],1
31,23,122.7,30.6,['21-22'],1
31,24,122.7,30.6,['21-22'],1
31,25,122.7,30.6,['21-22'],1
31,26,122.7,30.6,['21-22'],1
31,27,122.7,30.6,['21-22'],1
31,28,122.7,30.6,['21-22'],1
31,29,122.7,30.6,['21-22'],1
31,30,122.7,30.6,['21-22'],1
31,31,122.7,30.6,['21-22'],1
31,32,122.7,30.6,['21-22'],1
31,33,122.7,30.6,['21-22'],1
31,34,122.7,30.6,['21-22'],1
31,35,122.7,30.6,['21-22'],1
31,36,122.7,30.6,['21-22'],1
31,37,122.7,30.6,['21-22'],1
31,38,122.7,30.6,['21-22'],1
31,39,122.7,30.6,['21-22'],1
32,No generator,91.0,28.15,[],0
32,1,122.6,26.549999999999997,['21-22'],1
32,2,122.6,26.549999999999997,['21-22'],1
32,3,122.6,26.549999999999997,['21-22'],1
32,4,122.6,26.549999999999997,['21-22'],1
32,5,122.6,26.549999999999997,['21-22'],1
32,6,122.6,26.549999999999997,['21-22'],1
32,7,122.6,26.549999999999997,['21-22'],1
32,8,122.6,26.549999999999997,['21-22'],1
32,9,122.6,26.549999999999997,['21-22'],1
32,10,122.6,26.549999999999997,['21-22'],1
32,11,122.6,26.549999999999997,['21-22'],1
32,12,122.6,26.549999999999997,['21-22'],1
32,13,122.6,26.549999999999997,['21-22'],1
32,14,122.6,26.549999999999997,['21-22'],1
32,15,122.6,26.549999999999997,['21-22'],1
32,16,122.6,26.549999999999997,['21-22'],1
32,17,122.6,26.549999999999997,['21-22'],1
32,18,122.6,26.549999999999997,['21-22'],1
32,19,122.6,26.549999999999997,['21-22'],1
32,20,122.6,26.549999999999997,['21-22'],1
32,21,122.6,26.549999999999997,['21-22'],1
32,22,122.6,26.549999999999997,['21-22'],1
32,23,122.6,26.549999999999997,['21-22'],1
32,24,122.6,26.549999999999997,['21-22'],1
32,25,122.6,26.549999999999997,['21-22'],1
32,26,122.6,26.549999999999997,['21-22'],1
32,27,122.6,26.549999999999997,['21-22'],1
32,28,122.6,26.549999999999997,['21-22'],1
32,29,122.6,26.549999999999997,['21-22'],1
32,30,122.6,26.549999999999997,['21-22'],1
32,31,122.6,26.549999999999997,['21-22'],1
32,32,122.6,26.549999999999997,['21-22'],1
32,33,122.6,26.549999999999997,['21-22'],1
32,34,122.6,26.549999999999997,['21-22'],1
32,35,122.6,26.549999999999997,['21-22'],1
32,36,122.6,26.549999999999997,['21-22'],1
32,37,122.6,26.549999999999997,['21-22'],1
32,38,122.6,26.549999999999997,['21-22'],1
32,39,122.6,26.549999999999997,['21-22'],1
33,No generator,111.9,32.95,"['5-6', '16-19']",2
33,1,123.0,41.1,"['16-19', '21-22']",2
33,2,123.0,41.1,"['16-19', '21-22']",2
33,3,123.0,41.1,"['16-19', '21-22']",2
33,4,123.0,41.1,"['16-19', '21-22']",2
33,5,123.0,41.1,"['16-19', '21-22']",2
33,6,123.0,41.1,"['16-19', '21-22']",2
33,7,123.0,41.1,"['16-19', '21-22']",2
33,8,123.0,41.1,"['16-19', '21-22']",2
33,9,123.0,41.1,"['16-19', '21-22']",2
33,10,123.0,41.1,"['16-19', '21-22']",2
33,11,123.0,41.1,"['16-19', '21-22']",2
33,12,123.0,41.1,"['16-19', '21-22']",2
33,13,123.0,41.1,"['16-19', '21-22']",2
33,14,123.0,41.1,"['16-19', '21-22']",2
33,15,123.0,41.1,"['16-19', '21-22']",2
33,16,123.0,41.1,"['16-19', '21-22']",2
33,17,123.0,41.1,"['16-19', '21-22']",2
33,18,123.0,41.1,"['16-19', '21-22']",2
33,19,123.0,41.1,"['16-19', '21-22']",2
33,20,123.0,41.1,"['16-19', '21-22']",2
33,21,123.0,41.1,"['16-19', '21-22']",2
33,22,123.0,41.1,"['16-19', '21-22']",2
33,23,123.0,41.1,"['16-19', '21-22']",2
33,24,123.0,41.1,"['16-19', '21-22']",2
33,25,123.0,41.1,"['16-19', '21-22']",2
33,26,123.0,41.1,"['16-19', '21-22']",2
33,27,123.0,41.1,"['16-19', '21-22']",2
33,28,123.0,41.1,"['16-19', '21-22']",2
33,29,123.0,41.1,"['16-19', '21-22']",2
33,30,123.0,41.1,"['16-19', '21-22']",2
33,31,123.0,41.1,"['16-19', '21-22']",2
33,32,123.0,41.1,"['16-19', '21-22']",2
33,33,123.0,41.1,"['16-19', '21-22']",2
33,34,123.0,41.1,"['16-19', '21-22']",2
33,35,123.0,41.1,"['16-19', '21-22']",2
33,36,123.0,41.1,"['16-19', '21-22']",2
33,37,123.0,41.1,"['16-19', '21-22']",2
33,38,123.0,41.1,"['16-19', '21-22']",2
33,39,123.0,41.1,"['16-19', '21-22']",2
34,No generator,112.9,33.5,"['5-6', '16-19']",2
34,1,123.4,41.150000000000006,"['16-19', '21-22']",2
34,2,123.4,41.150000000000006,"['16-19', '21-22']",2
34,3,123.4,41.150000000000006,"['16-19', '21-22']",2
34,4,123.4,41.150000000000006,"['16-19', '21-22']",2
34,5,123.4,41.150000000000006,"['16-19', '21-22']",2
34,6,123.4,41.150000000000006,"['16-19', '21-22']",2
34,7,123.4,41.150000000000006,"['16-19', '21-22']",2
34,8,123.4,41.150000000000006,"['16-19', '21-22']",2
34,9,123.4,41.150000000000006,"['16-19', '21-22']",2
34,10,123.4,41.150000000000006,"['16-19', '21-22']",2
34,11,123.4,41.150000000000006,"['16-19', '21-22']",2
34,12,123.4,41.150000000000006,"['16-19', '21-22']",2
34,13,123.4,41.150000000000006,"['16-19', '21-22']",2
34,14,123.4,41.150000000000006,"['16-19', '21-22']",2
34,15,123.4,41.150000000000006,"['16-19', '21-22']",2
34,16,123.4,41.150000000000006,"['16-19', '21-22']",2
34,17,123.4,41.150000000000006,"['16-19', '21-22']",2
34,18,123.4,41.150000000000006,"['16-19', '21-22']",2
34,19,123.4,41.150000000000006,"['16-19', '21-22']",2
34,20,123.4,41.150000000000006,"['16-19', '21-22']",2
34,21,123.4,41.150000000000006,"['16-19', '21-22']",2
34,22,123.4,41.150000000000006,"['16-19', '21-22']",2
34,23,123.4,41.150000000000006,"['16-19', '21-22']",2
34,24,123.4,41.150000000000006,"['16-19', '21-22']",2
34,25,123.4,41.150000000000006,"['16-19', '21-22']",2
34,26,123.4,41.150000000000006,"['16-19', '21-22']",2
34,27,123.4,41.150000000000006,"['16-19', '21-22']",2
34,28,123.4,41.150000000000006,"['16-19', '21-22']",2
34,29,123.4,41.150000000000006,"['16-19', '21-22']",2
34,30,123.4,41.150000000000006,"['16-19', '21-22']",2
34,31,123.4,41.150000000000006,"['16-19', '21-22']",2
34,32,123.4,41.150000000000006,"['16-19', '21-22']",2
34,33,123.4,41.150000000000006,"['16-19', '21-22']",2
34,34,123.4,41.150000000000006,"['16-19', '21-22']",2
34,35,123.4,41.150000000000006,"['16-19', '21-22']",2
34,36,123.4,41.150000000000006,"['16-19', '21-22']",2
34,37,123.4,41.150000000000006,"['16-19', '21-22']",2
34,38,123.4,41.150000000000006,"['16-19', '21-22']",2
34,39,123.4,41.150000000000006,"['16-19', '21-22']",2
35,No generator,100.8,32.75,['5-6'],1
35,1,91.1,41.1,[],0
35,2,91.1,41.1,[],0
35,3,91.1,41.1,[],0
35,4,91.1,41.1,[],0
35,5,91.1,41.1,[],0
35,6,91.1,41.1,[],0
35,7,91.1,41.1,[],0
35,8,91.1,41.1,[],0
35,9,91.1,41.1,[],0
35,10,91.1,41.1,[],0
35,11,91.1,41.1,[],0
35,12,91.1,41.1,[],0
35,13,91.1,41.1,[],0
35,14,91.1,41.1,[],0
35,15,91.1,41.1,[],0
35,16,91.1,41.1,[],0
35,17,91.1,41.1,[],0
35,18,91.1,41.1,[],0
35,19,91.1,41.1,[],0
35,20,91.1,41.1,[],0
35,21,91.1,41.1,[],0
35,22,91.1,41.1,[],0
35,23,91.1,41.1,[],0
35,24,91.1,41.1,[],0
35,25,91.1,41.1,[],0
35,26,91.1,41.1,[],0
35,27,91.1,41.1,[],0
35,28,91.1,41.1,[],0
35,29,91.1,41.1,[],0
35,30,91.1,41.1,[],0
35,31,91.1,41.1,[],0
35,32,91.1,41.1,[],0
35,33,91.1,41.1,[],0
35,34,91.1,41.1,[],0
35,35,91.1,41.1,[],0
35,36,91.1,41.1,[],0
35,37,91.1,41.1,[],0
35,38,91.1,41.1,[],0
35,39,91.1,41.1,[],0
36,No generator,113.8,32.8,"['5-6', '22-23']",2
36,1,113.8,40.45,['22-23'],1
36,2,113.8,40.45,['22-23'],1
36,3,113.8,40.45,['22-23'],1
36,4,113.8,40.45,['22-23'],1
36,5,113.8,40.45,['22-23'],1
36,6,113.8,40.45,['22-23'],1
36,7,113.8,40.45,['22-23'],1
36,8,113.8,40.45,['22-23'],1
36,9,113.8,40.45,['22-23'],1
36,10,113.8,40.45,['22-23'],1
36,11,113.8,40.45,['22-23'],1
36,12,113.8,40.45,['22-23'],1
36,13,113.8,40.45,['22-23'],1
36,14,113.8,40.45,['22-23'],1
36,15,113.8,40.45,['22-23'],1
36,16,113.8,40.45,['22-23'],1
36,17,113.8,40.45,['22-23'],1
36,18,113.8,40.45,['22-23'],1
36,19,113.8,40.45,['22-23'],1
36,20,113.8,40.45,['22-23'],1
36,21,113.8,40.45,['22-23'],1
36,22,113.8,40.45,['22-23'],1
36,23,113.8,40.45,['22-23'],1
36,24,113.8,40.45,['22-23'],1
36,25,113.8,40.45,['22-23'],1
36,26,113.8,40.45,['22-23'],1
36,27,113.8,40.45,['22-23'],1
36,28,113.8,40.45,['22-23'],1
36,29,113.8,40.45,['22-23'],1
36,30,113.8,40.45,['22-23'],1
36,31,113.8,40.45,['22-23'],1
36,32,113.8,40.45,['22-23'],1
36,33,113.8,40.45,['22-23'],1
36,34,113.8,40.45,['22-23'],1
36,35,113.8,40.45,['22-23'],1
36,36,113.8,40.45,['22-23'],1
36,37,113.8,40.45,['22-23'],1
36,38,113.8,40.45,['22-23'],1
36,39,113.8,40.45,['22-23'],1
37,No generator,105.9,37.650000000000006,['5-6'],1
37,1,122.5,34.85,['21-22'],1
37,2,122.5,34.85,['21-22'],1
37,3,122.5,34.85,['21-22'],1
37,4,122.5,34.85,['21-22'],1
37,5,122.5,34.85,['21-22'],1
37,6,122.5,34.85,['21-22'],1
37,7,122.5,34.85,['21-22'],1
37,8,122.5,34.85,['21-22'],1
37,9,122.5,34.85,['21-22'],1
37,10,122.5,34.85,['21-22'],1
37,11,122.5,34.85,['21-22'],1
37,12,122.5,34.85,['21-22'],1
37,13,122.5,34.85,['21-22'],1
37,14,122.5,34.85,['21-22'],1
37,15,122.5,34.85,['21-22'],1
37,16,122.5,34.85,['21-22'],1
37,17,122.5,34.85,['21-22'],1
37,18,122.5,34.85,['21-22'],1
37,19,122.5,34.85,['21-22'],1
37,20,122.5,34.85,['21-22'],1
37,21,122.5,34.85,['21-22'],1
37,22,122.5,34.85,['21-22'],1
37,23,122.5,34.85,['21-22'],1
37,24,122.5,34.85,['21-22'],1
37,25,122.5,34.85,['21-22'],1
37,26,122.5,34.85,['21-22'],1
37,27,122.5,34.85,['21-22'],1
37,28,122.5,34.85,['21-22'],1
37,29,122.5,34.85,['21-22'],1
37,30,122.5,34.85,['21-22'],1
37,31,122.5,34.85,['21-22'],1
37,32,122.5,34.85,['21-22'],1
37,33,122.5,34.85,['21-22'],1
37,34,122.5,34.85,['21-22'],1
37,35,122.5,34.85,['21-22'],1
37,36,122.5,34.85,['21-22'],1
37,37,122.5,34.85,['21-22'],1
37,38,122.5,34.85,['21-22'],1
37,39,122.5,34.85,['21-22'],1
38,No generator,116.4,37.900000000000006,"['5-6', '17-27', '25-26']",3
38,1,123.0,44.650000000000006,"['17-27', '21-22', '25-26']",3
38,2,123.0,44.650000000000006,"['17-27', '21-22', '25-26']",3
38,3,123.0,44.650000000000006,"['17-27', '21-22', '25-26']",3
38,4,123.0,44.650000000000006,"['17-27', '21-22', '25-26']",3
38,5,123.0,44.650000000000006,"['17-27', '21-22', '25-26']",3
38,6,123.0,44.650000000000006,"['17-27', '21-22', '25-26']",3
38,7,123.0,44.650000000000006,"['17-27', '21-22', '25-26']",3
38,8,123.0,44.650000000000006,"['17-27', '21-22', '25-26']",3
38,9,123.0,44.650000000000006,"['17-27', '21-22', '25-26']",3
38,10,123.0,44.650000000000006,"['17-27', '21-22', '25-26']",3
38,11,123.0,44.650000000000006,"['17-27', '21-22', '25-26']",3
38,12,123.0,44.650000000000006,"['17-27', '21-22', '25-26']",3
38,13,123.0,44.650000000000006,"['17-27', '21-22', '25-26']",3
38,14,123.0,44.650000000000006,"['17-27', '21-22', '25-26']",3
38,15,123.0,44.650000000000006,"['17-27', '21-22', '25-26']",3
38,16,123.0,44.650000000000006,"['17-27', '21-22', '25-26']",3
38,17,123.0,44.650000000000006,"['17-27', '21-22', '25-26']",3
38,18,123.0,44.650000000000006,"['17-27', '21-22', '25-26']",3
38,19,123.0,44.650000000000006,"['17-27', '21-22', '25-26']",3
38,20,123.0,44.650000000000006,"['17-27', '21-22', '25-26']",3
38,21,123.0,44.650000000000006,"['17-27', '21-22', '25-26']",3
38,22,123.0,44.650000000000006,"['17-27', '21-22', '25-26']",3
38,23,123.0,44.650000000000006,"['17-27', '21-22', '25-26']",3
38,24,123.0,44.650000000000006,"['17-27', '21-22', '25-26']",3
38,25,123.0,44.650000000000006,"['17-27', '21-22', '25-26']",3
38,26,123.0,44.650000000000006,"['17-27', '21-22', '25-26']",3
38,27,123.0,44.650000000000006,"['17-27', '21-22', '25-26']",3
38,28,123.0,44.650000000000006,"['17-27', '21-22', '25-26']",3
38,29,123.0,44.650000000000006,"['17-27', '21-22', '25-26']",3
38,30,123.0,44.650000000000006,"['17-27', '21-22', '25-26']",3
38,31,123.0,44.650000000000006,"['17-27', '21-22', '25-26']",3
38,32,123.0,44.650000000000006,"['17-27', '21-22', '25-26']",3
38,33,123.0,44.650000000000006,"['17-27', '21-22', '25-26']",3
38,34,123.0,44.650000000000006,"['17-27', '21-22', '25-26']",3
38,35,123.0,44.650000000000006,"['17-27', '21-22', '25-26']",3
38,36,123.0,44.650000000000006,"['17-27', '21-22', '25-26']",3
38,37,123.0,44.650000000000006,"['17-27', '21-22', '25-26']",3
38,38,123.0,44.650000000000006,"['17-27', '21-22', '25-26']",3
38,39,123.0,44.650000000000006,"['17-27', '21-22', '25-26']",3
39,No generator,102.2,41.45,['5-6'],1
39,1,122.3,29.55,['21-22'],1
39,2,122.3,29.55,['21-22'],1
39,3,122.3,29.55,['21-22'],1
39,4,122.3,29.55,['21-22'],1
39,5,122.3,29.55,['21-22'],1
39,6,122.3,29.55,['21-22'],1
39,7,122.3,29.55,['21-22'],1
39,8,122.3,29.55,['21-22'],1
39,9,122.3,29.55,['21-22'],1
39,10,122.3,29.55,['21-22'],1
39,11,122.3,29.55,['21-22'],1
39,12,122.3,29.55,['21-22'],1
39,13,122.3,29.55,['21-22'],1
39,14,122.3,29.55,['21-22'],1
39,15,122.3,29.55,['21-22'],1
39,16,122.3,29.55,['21-22'],1
39,17,122.3,29.55,['21-22'],1
39,18,122.3,29.55,['21-22'],1
39,19,122.3,29.55,['21-22'],1
39,20,122.3,29.55,['21-22'],1
39,21,122.3,29.55,['21-22'],1
39,22,122.3,29.55,['21-22'],1
39,23,122.3,29.55,['21-22'],1
39,24,122.3,29.55,['21-22'],1
39,25,122.3,29.55,['21-22'],1
39,26,122.3,29.55,['21-22'],1
39,27,122.3,29.55,['21-22'],1
39,28,122.3,29.55,['21-22'],1
39,29,122.3,29.55,['21-22'],1
39,30,122.3,29.55,['21-22'],1
39,31,122.3,29.55,['21-22'],1
39,32,122.3,29.55,['21-22'],1
39,33,122.3,29.55,['21-22'],1
39,34,122.3,29.55,['21-22'],1
39,35,122.3,29.55,['21-22'],1
39,36,122.3,29.55,['21-22'],1
39,37,122.3,29.55,['21-22'],1
39,38,122.3,29.55,['21-22'],1
39,39,122.3,29.55,['21-22'],1
